2zwz_ligand_rnum.pdb
 OpenBabel02151809393D

 30 30  0  0  1  0  0  0  0  0999 V2000
   -3.1150   26.0590   24.4980 O   0  0  0  0  0  0  0  0  0  0  0  0
   -1.7520   26.4870   24.5090 C   0  0  1  0  0  0  0  0  0  0  0  0
   -1.5670   27.6750   23.5630 C   0  0  2  0  0  0  0  0  0  0  0  0
   -2.0330   27.3480   22.2530 O   0  0  0  0  0  0  0  0  0  0  0  0
   -0.0770   28.0090   23.5140 C   0  0  2  0  0  0  0  0  0  0  0  0
    0.5930   26.8790   22.9420 O   0  0  0  0  0  0  0  0  0  0  0  0
    0.4280   28.3030   24.9310 C   0  0  2  0  0  0  0  0  0  0  0  0
    1.9310   28.5830   24.9400 C   0  0  0  0  0  0  0  0  0  0  0  0
    0.1470   27.1820   25.8460 N   0  3  0  0  0  0  0  0  0  0  0  0
   -1.2940   26.8920   25.9150 C   0  0  2  0  0  0  0  0  0  0  0  0
   -1.5220   25.7600   26.9200 C   0  0  0  0  0  0  0  0  0  0  0  0
   -1.5400   26.2820   28.2960 N   0  3  0  0  0  0  0  0  0  0  0  0
   -3.6560   26.7780   24.7910 H   0  0  0  0  0  0  0  0  0  0  0  0
   -1.1810   25.6240   24.1670 H   0  0  0  0  0  0  0  0  0  0  0  0
   -2.1170   28.5380   23.9110 H   0  0  0  0  0  0  0  0  0  0  0  0
   -2.1380   28.1670   21.7690 H   0  0  0  0  0  0  0  0  0  0  0  0
    0.0830   28.8730   22.8670 H   0  0  0  0  0  0  0  0  0  0  0  0
    1.3630   27.1950   22.4820 H   0  0  0  0  0  0  0  0  0  0  0  0
   -0.0770   29.2020   25.2750 H   0  0  0  0  0  0  0  0  0  0  0  0
    2.2560   28.9560   25.9120 H   0  0  0  0  0  0  0  0  0  0  0  0
    2.5110   27.6850   24.7210 H   0  0  0  0  0  0  0  0  0  0  0  0
    2.1990   29.3270   24.1920 H   0  0  0  0  0  0  0  0  0  0  0  0
    0.4760   27.4480   26.7630 H   0  0  0  0  0  0  0  0  0  0  0  0
    0.6340   26.3470   25.5280 H   0  0  0  0  0  0  0  0  0  0  0  0
   -1.8910   27.7480   26.2040 H   0  0  0  0  0  0  0  0  0  0  0  0
   -0.9350   24.8720   26.7900 H   0  0  0  0  0  0  0  0  0  0  0  0
   -2.5410   25.4050   26.8050 H   0  0  0  0  0  0  0  0  0  0  0  0
   -0.6790   26.0350   28.7640 H   0  0  0  0  0  0  0  0  0  0  0  0
   -1.6340   27.2900   28.2830 H   0  0  0  0  0  0  0  0  0  0  0  0
   -2.3160   25.8780   28.8010 H   0  0  0  0  0  0  0  0  0  0  0  0
  1  2  1  0  0  0  0
  1 13  1  0  0  0  0
  2  3  1  6  0  0  0
  3  5  1  6  0  0  0
  3 15  1  0  0  0  0
  4  3  1  0  0  0  0
  5  7  1  1  0  0  0
  6  5  1  0  0  0  0
  7  8  1  0  0  0  0
  7 19  1  1  0  0  0
  7  9  1  0  0  0  0
  8 20  1  0  0  0  0
  9 10  1  0  0  0  0
  9 23  1  0  0  0  0
 10  2  1  6  0  0  0
 10 25  1  0  0  0  0
 10 11  1  0  0  0  0
 11 12  1  0  0  0  0
 12 28  1  0  0  0  0
 12 30  1  0  0  0  0
 14  2  1  0  0  0  0
 16  4  1  0  0  0  0
 17  5  1  0  0  0  0
 18  6  1  0  0  0  0
 21  8  1  0  0  0  0
 22  8  1  0  0  0  0
 24  9  1  0  0  0  0
 26 11  1  0  0  0  0
 27 11  1  0  0  0  0
 29 12  1  0  0  0  0
M  CHG  2   9   1  12   1
M  END
$$$$
