3nox_ligand_rnum.pdb
 OpenBabel02151809393D

 48 51  0  0  1  0  0  0  0  0999 V2000
   48.1540   50.3100   35.2880 C   0  0  1  0  0  0  0  0  0  0  0  0
   47.2010   51.0410   34.6220 C   0  0  0  0  0  0  0  0  0  0  0  0
   47.4770   51.4530   33.2910 C   0  0  0  0  0  0  0  0  0  0  0  0
   48.6000   51.2270   32.6210 N   0  0  0  0  0  0  0  0  0  0  0  0
   49.3290   50.0910   34.6430 N   0  0  0  0  0  0  0  0  0  0  0  0
   49.5760   50.5180   33.3080 C   0  0  0  0  0  0  0  0  0  0  0  0
   50.8150   50.1370   32.8850 N   0  0  0  0  0  0  0  0  0  0  0  0
   51.3350   49.4630   33.9980 C   0  0  0  0  0  0  0  0  0  0  0  0
   50.4660   49.4170   35.0680 C   0  0  0  0  0  0  0  0  0  0  0  0
   52.6830   48.8490   33.9770 C   0  0  0  0  0  0  0  0  0  0  0  0
   52.9220   47.9170   33.1820 O   0  0  0  0  0  0  0  0  0  0  0  0
   53.4980   49.0970   35.0940 N   0  0  0  0  0  0  0  0  0  0  0  0
   46.4760   52.2450   32.5260 C   0  0  0  0  0  0  0  0  0  0  0  0
   48.0450   49.8540   36.6840 C   0  0  0  0  0  0  0  0  0  0  0  0
   45.8560   51.3180   35.2360 C   0  0  0  0  0  0  0  0  0  0  0  0
   45.9790   52.4820   36.0670 N   0  3  0  0  0  0  0  0  0  0  0  0
   47.5080   48.6080   36.9530 C   0  0  0  0  0  0  0  0  0  0  0  0
   47.4380   48.1760   38.2730 C   0  0  0  0  0  0  0  0  0  0  0  0
   47.9180   49.0080   39.2870 C   0  0  0  0  0  0  0  0  0  0  0  0
   48.4480   50.2400   39.0530 C   0  0  0  0  0  0  0  0  0  0  0  0
   48.5140   50.6430   37.7480 C   0  0  0  0  0  0  0  0  0  0  0  0
   49.1940   52.1670   37.4450 Cl  0  0  0  0  0  0  0  0  0  0  0  0
   47.8960   48.4690   40.8970 Cl  0  0  0  0  0  0  0  0  0  0  0  0
   53.6990   50.4300   35.7030 C   0  0  0  0  0  0  0  0  0  0  0  0
   55.0610   51.0460   35.1930 C   0  0  0  0  0  0  0  0  0  0  0  0
   56.1770   50.1340   35.2950 O   0  0  0  0  0  0  0  0  0  0  0  0
   55.9270   48.7740   34.8570 C   0  0  0  0  0  0  0  0  0  0  0  0
   54.6050   48.1690   35.4070 C   0  0  0  0  0  0  0  0  0  0  0  0
   50.5500   49.0100   36.0630 H   0  0  0  0  0  0  0  0  0  0  0  0
   46.9030   52.6690   31.6150 H   0  0  0  0  0  0  0  0  0  0  0  0
   45.6360   51.6150   32.2310 H   0  0  0  0  0  0  0  0  0  0  0  0
   46.0940   53.0810   33.1100 H   0  0  0  0  0  0  0  0  0  0  0  0
   45.5220   50.4780   35.8450 H   0  0  0  0  0  0  0  0  0  0  0  0
   45.0840   51.4680   34.4860 H   0  0  0  0  0  0  0  0  0  0  0  0
   45.0580   52.7230   36.4270 H   0  0  0  0  0  0  0  0  0  0  0  0
   46.5750   52.2740   36.8540 H   0  0  0  0  0  0  0  0  0  0  0  0
   46.3760   53.2770   35.5550 H   0  0  0  0  0  0  0  0  0  0  0  0
   47.1460   47.9760   36.1540 H   0  0  0  0  0  0  0  0  0  0  0  0
   47.0370   47.2040   38.5090 H   0  0  0  0  0  0  0  0  0  0  0  0
   48.8180   50.8600   39.8570 H   0  0  0  0  0  0  0  0  0  0  0  0
   53.7550   50.3720   36.7760 H   0  0  0  0  0  0  0  0  0  0  0  0
   52.8750   51.1080   35.4790 H   0  0  0  0  0  0  0  0  0  0  0  0
   55.2960   51.9600   35.7390 H   0  0  0  0  0  0  0  0  0  0  0  0
   54.9550   51.3260   34.1440 H   0  0  0  0  0  0  0  0  0  0  0  0
   56.7740   48.1530   35.1490 H   0  0  0  0  0  0  0  0  0  0  0  0
   55.9000   48.7700   33.7670 H   0  0  0  0  0  0  0  0  0  0  0  0
   54.4420   47.1640   35.0160 H   0  0  0  0  0  0  0  0  0  0  0  0
   54.6720   48.0620   36.4910 H   0  0  0  0  0  0  0  0  0  0  0  0
  1 14  1  1  0  0  0
  2 15  1  0  0  0  0
  2  1  1  0  0  0  0
  3  2  2  0  0  0  0
  4  3  1  0  0  0  0
  4  6  2  0  0  0  0
  5  9  1  0  0  0  0
  5  1  1  0  0  0  0
  6  5  1  0  0  0  0
  7  6  1  0  0  0  0
  7  8  2  0  0  0  0
  8  9  1  0  0  0  0
  9 29  1  0  0  0  0
 10  8  1  0  0  0  0
 10 12  1  0  0  0  0
 11 10  2  0  0  0  0
 12 28  1  0  0  0  0
 12 24  1  0  0  0  0
 13 32  1  0  0  0  0
 13  3  1  0  0  0  0
 14 17  2  0  0  0  0
 14 21  1  0  0  0  0
 15 33  1  0  0  0  0
 15 16  1  0  0  0  0
 16 35  1  0  0  0  0
 16 36  1  0  0  0  0
 17 18  1  0  0  0  0
 18 39  1  0  0  0  0
 18 19  2  0  0  0  0
 19 23  1  0  0  0  0
 20 19  1  0  0  0  0
 20 40  1  0  0  0  0
 21 20  2  0  0  0  0
 22 21  1  0  0  0  0
 24 41  1  0  0  0  0
 25 26  1  0  0  0  0
 25 24  1  0  0  0  0
 25 43  1  0  0  0  0
 27 45  1  0  0  0  0
 27 26  1  0  0  0  0
 27 28  1  0  0  0  0
 28 48  1  0  0  0  0
 30 13  1  0  0  0  0
 31 13  1  0  0  0  0
 34 15  1  0  0  0  0
 37 16  1  0  0  0  0
 38 17  1  0  0  0  0
 42 24  1  0  0  0  0
 44 25  1  0  0  0  0
 46 27  1  0  0  0  0
 47 28  1  0  0  0  0
M  CHG  1  16   1
M  END
$$$$
