2xb8_ligand_rnum.pdb
 OpenBabel02151809393D

 39 40  0  0  1  0  0  0  0  0999 V2000
   20.2440    1.6680   36.8330 C   0  0  0  0  0  0  0  0  0  0  0  0
   19.1300    1.4710   35.9620 O   0  0  0  0  0  0  0  0  0  0  0  0
   17.9740    2.0160   36.4940 C   0  0  0  0  0  0  0  0  0  0  0  0
   16.8010    1.6940   35.8640 C   0  0  0  0  0  0  0  0  0  0  0  0
   15.5680    2.1550   36.2860 C   0  0  0  0  0  0  0  0  0  0  0  0
   17.8850    2.8580   37.6010 C   0  0  0  0  0  0  0  0  0  0  0  0
   16.6240    3.3330   38.0230 C   0  0  0  0  0  0  0  0  0  0  0  0
   15.4490    2.9840   37.3600 C   0  0  0  0  0  0  0  0  0  0  0  0
   14.0320    3.4540   37.7030 C   0  0  0  0  0  0  0  0  0  0  0  0
   13.3690    2.7050   38.8520 C   0  0  1  0  0  0  0  0  0  0  0  0
   13.7620    3.3750   40.1680 C   0  0  0  0  0  0  0  0  0  0  0  0
   14.5280    4.3410   40.2000 O   0  0  0  0  0  0  0  0  0  0  0  0
   13.1820    2.8490   41.4630 C   0  0  1  0  0  0  0  0  0  0  0  0
   13.4440    3.8120   42.5080 O   0  0  0  0  0  0  0  0  0  0  0  0
   11.6670    2.7290   41.2950 C   0  0  2  0  0  0  0  0  0  0  0  0
   11.1380    2.0430   42.4370 O   0  0  0  0  0  0  0  0  0  0  0  0
   11.2430    2.0270   39.9810 C   0  0  0  0  0  0  0  0  0  0  0  0
   11.8430    2.6660   38.7210 C   0  0  2  0  0  0  0  0  0  0  0  0
   11.4610    1.8070   37.4960 C   0  0  0  0  0  0  0  0  0  0  0  0
   11.5010    0.5520   37.6400 O   0  0  0  0  0  0  0  0  0  0  0  0
   11.0610    2.4200   36.4670 O   0  5  0  0  0  0  0  0  0  0  0  0
   11.2760    3.9950   38.5400 O   0  0  0  0  0  0  0  0  0  0  0  0
   21.1350    1.2530   36.3600 H   0  0  0  0  0  0  0  0  0  0  0  0
   20.4540    2.7130   37.0480 H   0  0  0  0  0  0  0  0  0  0  0  0
   20.1050    1.1350   37.7750 H   0  0  0  0  0  0  0  0  0  0  0  0
   16.8370    1.0120   35.0340 H   0  0  0  0  0  0  0  0  0  0  0  0
   14.6890    1.8370   35.7450 H   0  0  0  0  0  0  0  0  0  0  0  0
   18.7410    3.1560   38.1800 H   0  0  0  0  0  0  0  0  0  0  0  0
   16.5830    3.9890   38.8770 H   0  0  0  0  0  0  0  0  0  0  0  0
   13.4470    3.3710   36.7900 H   0  0  0  0  0  0  0  0  0  0  0  0
   14.0550    4.5340   37.8520 H   0  0  0  0  0  0  0  0  0  0  0  0
   13.7390    1.6800   38.8720 H   0  0  0  0  0  0  0  0  0  0  0  0
   13.6460    1.8870   41.6740 H   0  0  0  0  0  0  0  0  0  0  0  0
   14.3880    3.9400   42.5790 H   0  0  0  0  0  0  0  0  0  0  0  0
   11.2250    3.7280   41.2950 H   0  0  0  0  0  0  0  0  0  0  0  0
   10.7710    2.6950   43.0240 H   0  0  0  0  0  0  0  0  0  0  0  0
   10.1540    2.0200   39.9100 H   0  0  0  0  0  0  0  0  0  0  0  0
   11.5470    0.9820   40.0660 H   0  0  0  0  0  0  0  0  0  0  0  0
   11.5290    4.3140   37.6840 H   0  0  0  0  0  0  0  0  0  0  0  0
  1 24  1  0  0  0  0
  1 25  1  0  0  0  0
  2  3  1  0  0  0  0
  2  1  1  0  0  0  0
  3  6  2  0  0  0  0
  4  5  2  0  0  0  0
  4  3  1  0  0  0  0
  5  8  1  0  0  0  0
  6  7  1  0  0  0  0
  6 28  1  0  0  0  0
  7 29  1  0  0  0  0
  8  9  1  0  0  0  0
  8  7  2  0  0  0  0
  9 31  1  0  0  0  0
  9 10  1  0  0  0  0
 10 18  1  6  0  0  0
 10 32  1  0  0  0  0
 10 11  1  0  0  0  0
 11 12  2  0  0  0  0
 11 13  1  0  0  0  0
 13 15  1  6  0  0  0
 13 33  1  0  0  0  0
 13 14  1  0  0  0  0
 14 34  1  0  0  0  0
 15 35  1  6  0  0  0
 15 16  1  0  0  0  0
 16 36  1  0  0  0  0
 17 38  1  0  0  0  0
 17 15  1  0  0  0  0
 18 19  1  6  0  0  0
 18 17  1  0  0  0  0
 19 20  1  0  0  0  0
 21 19  2  0  0  0  0
 22 18  1  0  0  0  0
 23  1  1  0  0  0  0
 26  4  1  0  0  0  0
 27  5  1  0  0  0  0
 30  9  1  0  0  0  0
 37 17  1  0  0  0  0
 39 22  1  0  0  0  0
M  CHG  1  21  -1
M  END
$$$$
