2zxd_ligand_rnum.pdb
 OpenBabel02151809393D

 30 30  0  0  1  0  0  0  0  0999 V2000
    1.4890   29.4010   26.9320 C   0  0  0  0  0  0  0  0  0  0  0  0
    1.2300   28.9010   25.5070 C   0  0  0  0  0  0  0  0  0  0  0  0
    2.3070   27.8780   25.1350 C   0  0  0  0  0  0  0  0  0  0  0  0
   -0.1720   28.2870   25.4200 C   0  0  2  0  0  0  0  0  0  0  0  0
   -0.2240   27.0110   26.1540 N   0  3  0  0  0  0  0  0  0  0  0  0
   -1.6000   26.4880   26.1950 C   0  0  0  0  0  0  0  0  0  0  0  0
   -2.0660   26.2140   24.7590 C   0  0  1  0  0  0  0  0  0  0  0  0
   -3.3820   25.6550   24.7520 O   0  0  0  0  0  0  0  0  0  0  0  0
   -2.0570   27.5250   23.9690 C   0  0  2  0  0  0  0  0  0  0  0  0
   -2.4910   27.2890   22.6290 O   0  0  0  0  0  0  0  0  0  0  0  0
   -0.6340   28.0860   23.9730 C   0  0  2  0  0  0  0  0  0  0  0  0
    0.2340   27.1550   23.3240 O   0  0  0  0  0  0  0  0  0  0  0  0
    0.7360   30.1280   27.2370 H   0  0  0  0  0  0  0  0  0  0  0  0
    1.4890   28.5920   27.6630 H   0  0  0  0  0  0  0  0  0  0  0  0
    2.4560   29.9000   26.9970 H   0  0  0  0  0  0  0  0  0  0  0  0
    1.2990   29.7480   24.8270 H   0  0  0  0  0  0  0  0  0  0  0  0
    2.4090   27.6520   24.0830 H   0  0  0  0  0  0  0  0  0  0  0  0
    3.2780   28.2820   25.4060 H   0  0  0  0  0  0  0  0  0  0  0  0
    2.2370   26.9450   25.6900 H   0  0  0  0  0  0  0  0  0  0  0  0
   -0.8670   28.9840   25.8940 H   0  0  0  0  0  0  0  0  0  0  0  0
    0.1050   27.1560   27.0960 H   0  0  0  0  0  0  0  0  0  0  0  0
    0.3640   26.3140   25.7030 H   0  0  0  0  0  0  0  0  0  0  0  0
   -2.2590   27.1920   26.7060 H   0  0  0  0  0  0  0  0  0  0  0  0
   -1.6010   25.5660   26.7760 H   0  0  0  0  0  0  0  0  0  0  0  0
   -1.4100   25.4780   24.2940 H   0  0  0  0  0  0  0  0  0  0  0  0
   -3.9570   26.2370   25.2270 H   0  0  0  0  0  0  0  0  0  0  0  0
   -2.7410   28.2440   24.4200 H   0  0  0  0  0  0  0  0  0  0  0  0
   -2.5440   28.1290   22.1770 H   0  0  0  0  0  0  0  0  0  0  0  0
   -0.6070   29.0280   23.4240 H   0  0  0  0  0  0  0  0  0  0  0  0
    0.9910   27.6250   22.9950 H   0  0  0  0  0  0  0  0  0  0  0  0
  1 15  1  0  0  0  0
  1 13  1  0  0  0  0
  1 14  1  0  0  0  0
  2  1  1  0  0  0  0
  3 18  1  0  0  0  0
  3  2  1  0  0  0  0
  3 19  1  0  0  0  0
  4 11  1  6  0  0  0
  4  2  1  0  0  0  0
  4 20  1  0  0  0  0
  4  5  1  0  0  0  0
  5  6  1  0  0  0  0
  5 21  1  0  0  0  0
  6 23  1  0  0  0  0
  6 24  1  0  0  0  0
  7  9  1  6  0  0  0
  7  6  1  0  0  0  0
  8  7  1  0  0  0  0
  8 26  1  0  0  0  0
  9 11  1  6  0  0  0
  9 27  1  0  0  0  0
 10  9  1  0  0  0  0
 11 29  1  6  0  0  0
 12 11  1  0  0  0  0
 16  2  1  0  0  0  0
 17  3  1  0  0  0  0
 22  5  1  0  0  0  0
 25  7  1  0  0  0  0
 28 10  1  0  0  0  0
 30 12  1  0  0  0  0
M  CHG  1   5   1
M  END
$$$$
